omf/solvers/opendss/EPRI-ckt24.clean.dss


!!!master.dss
clear
new object=circuit.ckt24


! redirect vsource.dss
! makebuslist
! redirect busvoltagebases.dss ! set voltage bases
! buscoords buscoords.dss
! giscoords giscoords.dss


!!!loadshape.dss
new object=loadshape.default npts=24 interval=1 mult=[0.677,0.6256,0.6087,0.5833,0.58028,0.6025,0.657,0.7477,0.832,0.88,0.94,0.989,0.985,0.98,0.9898,0.999,1,0.958,0.936,0.913,0.876,0.876,0.828,0.756]
new object=loadshape.ls_phasea npts=8760 interval=1 mult=[0.446556,0.433551,0.420505,0.415724,0.428804,0.440051,0.455372,0.47703,0.512115,0.528054,0.541378,0.540514,0.539069,0.53113,0.518723,0.515207,0.540034,0.578991,0.585453,0.574614,0.563124,0.564756,0.560656,0.542101,0.529216,0.527412,0.542855,0.547909,0.55859,0.589083,0.622906,0.657651,0.669925,0.687563,0.690294,0.673419,0.666402,0.6459,0.636252,0.63605,0.685308,0.745319,0.760631,0.759415,0.750893,0.741528,0.711185,0.694042,0.682403,0.696535,0.693703,0.689598,0.708524,0.733004,0.769093,0.800172,0.80375,0.7911,0.754171,0.718043,0.688155,0.655483,0.630236,0.622659,0.662376,0.744427,0.757228,0.747304,0.74522,0.699093,0.683249,0.648271,0.633027,0.63036,0.643891,0.644802,0.669378,0.720318,0.798268,0.838683,0.800832,0.745042,0.707478,0.687919,0.664018,0.643158,0.627202,0.612949,0.645784,0.717497,0.741001,0.741359,0.729839,0.700172,0.660172,0.63017,0.611026,0.620726,0.632751,0.638025,0.648348,0.681856,0.758405,0.783185,0.760873,0.717274,0.67271,0.652016,0.616515,0.597256,0.587893,0.58704,0.618498,0.69911,0.714328,0.714193,0.71057,0.680051,0.637317,0.602665,0.57256,0.579703,0.585494,0.605651,0.627771,0.671959,0.750108,0.782049,0.746755,0.696357,0.623215,0.599185,0.577684,0.55117,0.539937,0.546123,0.576897,0.641539,0.662569,0.671481,0.670737,0.646631,0.595517,0.559158,0.542135,0.547109,0.560217,0.583693,0.617175,0.672431,0.753616,0.803986,0.763105,0.683305,0.628006,0.587083,0.553018,0.535669,0.52437,0.524046,0.55943,0.625918,0.652068,0.637067,0.627693,0.590944,0.546942,0.499942,0.477628,0.476322,0.479658,0.494659,0.51596,0.550593,0.611451,0.673346,0.660631,0.647894,0.649332,0.6165,0.601857,0.608681,0.590972,0.599228,0.630343,0.708531,0.725288,0.715134,0.716041,0.696578,0.671052,0.640791,0.62973,0.633649,0.643899,0.654525,0.667138,0.700092,0.729441,0.771097,0.776033,0.748483,0.682673,0.649051,0.620556,0.593924,0.566621,0.574948,0.591523,0.653766,0.671265,0.679354,0.674609,0.660684,0.64308,0.618013,0.602481,0.600041,0.608981,0.623425,0.642088,0.660804,0.704489,0.735287,0.755659,0.738572,0.708001,0.671196,0.646112,0.615113,0.593611,0.582947,0.616258,0.671584,0.709384,0.722745,0.721907,0.708464,0.687812,0.654874,0.646884,0.654523,0.668379,0.680992,0.709543,0.753481,0.842662,0.893397,0.836404,0.746423,0.712827,0.652602,0.610229,0.582913,0.555138,0.553528,0.581961,0.64045,0.658768,0.653251,0.630277,0.606916,0.553022,0.505658,0.478067,0.467187,0.487209,0.494715,0.506934,0.553294,0.627625,0.670161,0.657936,0.624137,0.600139,0.567697,0.578743,0.588541,0.569717,0.563193,0.592803,0.677128,0.701689,0.6955,0.695841,0.671074,0.631076,0.59669,0.591611,0.584564,0.600838,0.626684,0.642373,0.696956,0.776745,0.819032,0.770049,0.688378,0.623766,0.581869,0.545362,0.50965,0.492942,0.486028,0.497354,0.553386,0.583309,0.597974,0.594147,0.568057,0.53035,0.488193,0.467536,0.474496,0.480953,0.49767,0.519786,0.565223,0.650464,0.700701,0.678425,0.615932,0.559767,0.527202,0.485477,0.468351,0.449643,0.441295,0.455665,0.50915,0.53757,0.54024,0.538394,0.516125,0.477154,0.434976,0.410574,0.41573,0.417111,0.43557,0.454544,0.50203,0.574264,0.650286,0.640042,0.573936,0.514828,0.489291,0.463375,0.447083,0.429267,0.428356,0.423686,0.460701,0.484825,0.481058,0.466104,0.4451,0.416714,0.392955,0.378488,0.374335,0.38186,0.388026,0.405126,0.426088,0.462254,0.503255,0.525511,0.526598,0.496593,0.466775,0.434187,0.413946,0.405285,0.408915,0.4213,0.464269,0.478059,0.467792,0.454716,0.420367,0.391911,0.363,0.344019,0.327213,0.320665,0.321555,0.322681,0.338743,0.357359,0.400034,0.445355,0.472678,0.470167,0.45869,0.462151,0.457985,0.452323,0.448927,0.466662,0.504661,0.5059,0.480906,0.467112,0.447328,0.423215,0.38663,0.352595,0.350839,0.353358,0.363242,0.374914,0.409369,0.45472,0.496259,0.5104,0.484484,0.466514,0.446221,0.431803,0.415098,0.40837,0.394897,0.40915,0.469056,0.501522,0.493647,0.480353,0.455708,0.42338,0.38478,0.359374,0.376399,0.381969,0.388635,0.404796,0.44457,0.517808,0.564805,0.548395,0.494421,0.462142,0.440971,0.422288,0.411239,0.406277,0.407665,0.407506,0.457426,0.481069,0.4765,0.471618,0.443449,0.399185,0.358898,0.33715,0.328,0.327788,0.328255,0.342774,0.380522,0.452106,0.512737,0.525695,0.511359,0.503175,0.485642,0.462704,0.460281,0.453335,0.476142,0.492934,0.546991,0.566319,0.565928,0.554529,0.531192,0.48719,0.439031,0.412008,0.403842,0.409,0.411757,0.430671,0.471207,0.548057,0.602944,0.598184,0.586142,0.562938,0.555685,0.554928,0.556437,0.554523,0.556116,0.572107,0.614392,0.625204,0.619752,0.611123,0.573033,0.518168,0.476792,0.450754,0.443483,0.444052,0.445634,0.456456,0.490725,0.566074,0.610996,0.629134,0.615653,0.614793,0.610803,0.606119,0.599981,0.586334,0.590318,0.582848,0.620397,0.625286,0.609075,0.594246,0.554428,0.523926,0.474671,0.447079,0.437746,0.439687,0.462775,0.475021,0.500647,0.540531,0.585067,0.592946,0.576402,0.543001,0.515947,0.485087,0.452224,0.450859,0.442695,0.464859,0.519075,0.528688,0.536265,0.521928,0.498491,0.475572,0.442321,0.42616,0.416367,0.428401,0.438814,0.437916,0.439466,0.457597,0.477602,0.509974,0.51576,0.498669,0.478543,0.487825,0.476985,0.472845,0.459241,0.472843,0.497024,0.491911,0.45863,0.43005,0.398223,0.357616,0.315276,0.280593,0.268709,0.260637,0.256279,0.256845,0.284353,0.338409,0.390672,0.417177,0.410831,0.415394,0.414834,0.410428,0.395961,0.393073,0.389409,0.393107,0.430676,0.456557,0.454891,0.447902,0.416041,0.37265,0.33602,0.316116,0.317636,0.332852,0.348016,0.371541,0.421298,0.509858,0.570744,0.568334,0.532459,0.500217,0.490805,0.46693,0.465588,0.467832,0.478616,0.493817,0.541623,0.567341,0.574266,0.558519,0.526484,0.496057,0.448451,0.428315,0.427957,0.43491,0.451997,0.472045,0.528467,0.624353,0.671406,0.642746,0.586918,0.545625,0.512103,0.506556,0.499226,0.502275,0.503853,0.509311,0.556143,0.575638,0.564505,0.559662,0.531263,0.495701,0.454716,0.430963,0.432719,0.429329,0.425775,0.435214,0.493534,0.567987,0.603267,0.576376,0.536638,0.496951,0.464263,0.451457,0.435645,0.421605,0.41671,0.435924,0.483985,0.525747,0.522119,0.523959,0.495881,0.465017,0.450181,0.44174,0.457837,0.47995,0.499946,0.532498,0.587464,0.662597,0.709609,0.71233,0.664539,0.637708,0.627936,0.598881,0.584855,0.594792,0.597189,0.629085,0.664496,0.680756,0.681588,0.665431,0.637287,0.610896,0.584381,0.568218,0.56959,0.578025,0.586682,0.614853,0.65997,0.709236,0.755108,0.792172,0.819531,0.851808,0.86932,0.880029,0.867303,0.860549,0.841873,0.850914,0.879879,0.89806,0.87432,0.856673,0.825208,0.803647,0.762016,0.735403,0.743102,0.737575,0.752237,0.76446,0.789947,0.82216,0.848106,0.848057,0.796415,0.742634,0.702693,0.673437,0.629992,0.593187,0.587282,0.604097,0.673623,0.719739,0.718335,0.695976,0.676502,0.642778,0.610782,0.599672,0.602749,0.617773,0.647147,0.646858,0.670686,0.720916,0.754257,0.718631,0.671406,0.638158,0.587507,0.557374,0.526141,0.520552,0.512887,0.528695,0.600463,0.639226,0.647124,0.635637,0.610216,0.576648,0.534022,0.517062,0.510203,0.52502,0.535585,0.551871,0.587799,0.638031,0.673945,0.661527,0.636719,0.626083,0.601595,0.585205,0.575199,0.572699,0.573346,0.608336,0.653309,0.67477,0.675167,0.65547,0.623273,0.588453,0.549094,0.528523,0.519669,0.518423,0.526124,0.543781,0.574086,0.630159,0.667976,0.651362,0.645722,0.615968,0.600182,0.58385,0.556131,0.533658,0.531295,0.537776,0.586688,0.603921,0.605081,0.606839,0.581588,0.557351,0.525307,0.511226,0.514032,0.511483,0.521995,0.542189,0.607202,0.681127,0.720781,0.681063,0.621356,0.585618,0.552807,0.535328,0.527012,0.522192,0.533971,0.559874,0.598306,0.618993,0.622692,0.617842,0.593446,0.547941,0.505319,0.476483,0.475527,0.47537,0.487938,0.494764,0.532644,0.575973,0.612173,0.613147,0.606269,0.630069,0.649302,0.65449,0.661486,0.664325,0.671674,0.680492,0.719769,0.730345,0.716118,0.696074,0.648114,0.611873,0.580837,0.561199,0.571108,0.571385,0.571297,0.580833,0.592252,0.615612,0.641659,0.672856,0.700639,0.724486,0.734708,0.732599,0.724531,0.717137,0.712879,0.714742,0.748481,0.794059,0.760948,0.735028,0.721251,0.692738,0.664423,0.650749,0.661424,0.678421,0.693054,0.702729,0.733866,0.754006,0.773606,0.76261,0.73319,0.702168,0.660215,0.630723,0.60438,0.572472,0.569539,0.592226,0.648485,0.686292,0.674993,0.669267,0.668231,0.672107,0.631282,0.62163,0.626345,0.635375,0.653762,0.678007,0.728765,0.79747,0.847025,0.799807,0.72884,0.671524,0.625882,0.58821,0.566891,0.552203,0.546558,0.576607,0.641882,0.693605,0.711935,0.715704,0.683541,0.640613,0.597802,0.592513,0.605514,0.622466,0.630303,0.656021,0.683837,0.757035,0.764676,0.73417,0.673818,0.636782,0.602221,0.574751,0.559265,0.576646,0.579813,0.611363,0.6795,0.706391,0.701889,0.681219,0.639912,0.596383,0.554578,0.525532,0.521812,0.532922,0.541376,0.549002,0.597089,0.663602,0.71621,0.750621,0.753071,0.729569,0.687027,1,0.949988,0.921598,0.910782,0.878299,0.690871,0.736117,0.740055,0.732389,0.693225,0.652411,0.602626,0.575426,0.569273,0.575394,0.581225,0.5992,0.633418,0.68058,0.717589,0.690712,0.639802,0.603497,0.556667,0.531612,0.517428,0.508915,0.506717,0.523335,0.580818,0.619806,0.634312,0.632082,0.628064,0.587289,0.549662,0.532395,0.535242,0.54454,0.558551,0.581346,0.63998,0.738323,0.762976,0.706408,0.643878,0.60459,0.571861,0.533964,0.515027,0.510492,0.525714,0.551427,0.601777,0.626381,0.620713,0.609641,0.586913,0.563538,0.521208,0.50501,0.495326,0.512874,0.532468,0.559038,0.587162,0.611549,0.636235,0.671831,0.676633,0.67241,0.643739,0.62082,0.602427,0.571207,0.556161,0.558047,0.608846,0.649176,0.655114,0.657736,0.646828,0.619293,0.595858,0.585964,0.585535,0.592736,0.595626,0.610576,0.632048,0.665448,0.696255,0.685447,0.646367,0.60918,0.571781,0.549422,0.532506,0.508844,0.492365,0.509367,0.560271,0.618957,0.615717,0.613588,0.602654,0.570568,0.546639,0.528326,0.52952,0.541963,0.553852,0.568823,0.606743,0.659428,0.695843,0.6754,0.611483,0.591493,0.594756,0.580807,0.580385,0.58073,0.583637,0.601837,0.635231,0.643483,0.62836,0.621257,0.600294,0.57099,0.543994,0.524895,0.531269,0.541335,0.552239,0.577652,0.630313,0.715608,0.752299,0.71138,0.659932,0.625121,0.594177,0.568317,0.561756,0.55591,0.542512,0.558663,0.613481,0.65886,0.667075,0.663879,0.638136,0.601602,0.554741,0.546843,0.543402,0.550175,0.565204,0.578689,0.652477,0.732016,0.753539,0.710934,0.675705,0.649319,0.613282,0.565296,0.537498,0.53994,0.545638,0.560509,0.599498,0.636308,0.632163,0.636462,0.618419,0.572806,0.532884,0.50762,0.509573,0.519694,0.528019,0.53863,0.585826,0.656043,0.686139,0.648344,0.591615,0.562271,0.530397,0.505233,0.490425,0.476948,0.4683,0.469545,0.512465,0.565826,0.570051,0.573059,0.547707,0.517825,0.481916,0.460408,0.452966,0.462856,0.467045,0.499535,0.546436,0.630965,0.680923,0.63676,0.574787,0.540068,0.511024,0.487771,0.476616,0.459683,0.452928,0.45002,0.480237,0.529992,0.538353,0.53327,0.516937,0.4888,0.469942,0.458465,0.45743,0.453416,0.459606,0.474258,0.499164,0.52463,0.561561,0.553245,0.524441,0.495849,0.468593,0.444047,0.425069,0.401799,0.391877,0.406305,0.434262,0.487057,0.489649,0.496655,0.48407,0.465399,0.438434,0.428913,0.436374,0.43557,0.450413,0.464207,0.474798,0.500568,0.529544,0.521637,0.481195,0.451971,0.423288,0.409538,0.394108,0.37975,0.373942,0.378046,0.418772,0.469805,0.468128,0.450593,0.43235,0.399277,0.372894,0.355159,0.35297,0.357098,0.372753,0.398542,0.448419,0.52246,0.583436,0.567864,0.525639,0.493678,0.491988,0.480456,0.488311,0.474534,0.476288,0.498576,0.51218,0.520972,0.540265,0.518967,0.480698,0.436912,0.387655,0.367298,0.370199,0.374714,0.386729,0.407918,0.450513,0.531812,0.577238,0.599044,0.571878,0.555307,0.514152,0.471441,0.454323,0.439292,0.444019,0.435506,0.46994,0.518425,0.520423,0.513949,0.485561,0.442939,0.397217,0.371134,0.371977,0.385683,0.404757,0.422083,0.472326,0.539676,0.57611,0.575195,0.547188,0.538516,0.529852,0.512934,0.524793,0.525832,0.537337,0.547827,0.594539,0.607009,0.603293,0.591947,0.553356,0.512036,0.461445,0.437206,0.429432,0.435602,0.448434,0.469507,0.514905,0.600581,0.636554,0.622417,0.567629,0.537963,0.530971,0.513492,0.498019,0.489827,0.499087,0.520166,0.558189,0.626495,0.643164,0.640748,0.605315,0.570967,0.534987,0.515134,0.504734,0.516178,0.521864,0.540184,0.580644,0.655234,0.676292,0.66541,0.64245,0.581584,0.544753,0.509821,0.499466,0.497136,0.523766,0.541052,0.574822,0.598761,0.603338,0.590513,0.549559,0.520378,0.480323,0.45773,0.455061,0.446335,0.440636,0.455689,0.470827,0.498943,0.537322,0.555226,0.560232,0.551875,0.520597,0.491746,0.465397,0.441815,0.427946,0.430993,0.468971,0.506372,0.51787,0.51439,0.495907,0.469258,0.442767,0.427265,0.427044,0.436848,0.445272,0.462322,0.489023,0.511215,0.540047,0.538617,0.501059,0.496025,0.461017,0.457955,0.455337,0.438113,0.426036,0.457029,0.489072,0.526937,0.517345,0.51356,0.484748,0.463071,0.429503,0.405705,0.401908,0.405182,0.415704,0.438486,0.493712,0.577148,0.605197,0.581997,0.532985,0.504494,0.477521,0.457303,0.441151,0.429737,0.417613,0.410896,0.44736,0.496465,0.510325,0.512581,0.476041,0.442283,0.400941,0.374738,0.373739,0.375282,0.382467,0.402333,0.446273,0.530493,0.570965,0.578269,0.549431,0.527357,0.516577,0.513254,0.513029,0.516401,0.528808,0.552683,0.599648,0.634417,0.637238,0.618224,0.592839,0.54853,0.499331,0.472422,0.464951,0.471694,0.471678,0.483569,0.523877,0.591188,0.636848,0.636614,0.618423,0.600234,0.591161,0.579058,0.571831,0.566576,0.561934,0.559111,0.585567,0.604532,0.60712,0.589184,0.546416,0.504016,0.462434,0.436284,0.433711,0.437433,0.442071,0.461866,0.508962,0.591426,0.624763,0.604241,0.552021,0.526885,0.499308,0.486611,0.463577,0.446693,0.438621,0.439444,0.473975,0.526823,0.548014,0.548908,0.523159,0.495157,0.460972,0.444178,0.439181,0.449302,0.453871,0.476938,0.523255,0.593069,0.629529,0.622962,0.589111,0.567496,0.531242,0.484454,0.475535,0.471374,0.4753,0.451553,0.48809,0.507056,0.523174,0.521322,0.49523,0.467232,0.434906,0.418579,0.415831,0.420798,0.429574,0.447868,0.478599,0.517928,0.541571,0.543589,0.529807,0.489323,0.465309,0.439236,0.421011,0.399438,0.384255,0.391489,0.425131,0.472551,0.486326,0.491131,0.472356,0.457012,0.433941,0.419437,0.413243,0.417602,0.428437,0.440932,0.466852,0.499387,0.519409,0.5093,0.467635,0.441425,0.403342,0.388303,0.378552,0.370737,0.365169,0.371698,0.399035,0.45579,0.459773,0.446408,0.427833,0.392723,0.361036,0.350297,0.35702,0.365916,0.375077,0.395105,0.442064,0.522213,0.553875,0.533325,0.477036,0.449504,0.432146,0.427232,0.410269,0.404393,0.389553,0.376249,0.400322,0.451427,0.473214,0.468167,0.432517,0.389475,0.352456,0.33568,0.338175,0.349662,0.365189,0.387919,0.431608,0.516213,0.545827,0.519696,0.469822,0.439892,0.428892,0.413398,0.403321,0.397382,0.390682,0.380812,0.399479,0.448993,0.45678,0.440377,0.390232,0.352042,0.316234,0.287467,0.283929,0.284589,0.28775,0.297507,0.337127,0.40221,0.443333,0.464981,0.444946,0.43196,0.418629,0.409371,0.400497,0.391598,0.385916,0.378513,0.390504,0.440443,0.44647,0.43378,0.391444,0.336526,0.294865,0.266554,0.253389,0.250829,0.249958,0.25826,0.292138,0.355187,0.401709,0.42908,0.416122,0.408282,0.405266,0.3938,0.390532,0.389119,0.388821,0.379517,0.403267,0.43891,0.439989,0.429529,0.387762,0.332783,0.289733,0.257376,0.24397,0.239028,0.235482,0.238574,0.264055,0.330144,0.382113,0.409828,0.409253,0.416341,0.411798,0.403074,0.404127,0.39953,0.392387,0.394044,0.422368,0.428452,0.418056,0.407671,0.380754,0.335416,0.305461,0.281406,0.264282,0.254988,0.250306,0.253616,0.25898,0.282128,0.313247,0.344918,0.383837,0.381802,0.379373,0.373537,0.360641,0.351043,0.346955,0.348515,0.36723,0.391439,0.395562,0.38406,0.360781,0.331698,0.30063,0.272669,0.258493,0.25475,0.253584,0.260944,0.283689,0.311108,0.340975,0.366837,0.37867,0.381391,0.405671,0.409811,0.416427,0.408288,0.404597,0.407049,0.433801,0.454634,0.441736,0.414343,0.387977,0.344206,0.308541,0.298574,0.291613,0.292627,0.30373,0.340615,0.417945,0.469592,0.497419,0.471711,0.470546,0.46821,0.464959,0.449379,0.441972,0.436331,0.425524,0.440724,0.476254,0.498834,0.49791,0.460545,0.414675,0.361844,0.332399,0.315775,0.31061,0.315151,0.323039,0.364391,0.435894,0.489342,0.508293,0.490384,0.493161,0.472249,0.446654,0.428259,0.414174,0.408516,0.399183,0.399132,0.407834,0.456973,0.464113,0.435577,0.402877,0.359848,0.331512,0.323633,0.325035,0.338302,0.354701,0.406608,0.49071,0.541419,0.526804,0.471687,0.442555,0.421935,0.408203,0.400354,0.392537,0.393654,0.378573,0.376432,0.379903,0.41838,0.434869,0.398877,0.353281,0.30507,0.27552,0.269736,0.270872,0.280659,0.287415,0.329814,0.410162,0.453644,0.475308,0.434805,0.427376,0.405979,0.400692,0.397474,0.394653,0.393184,0.382109,0.379913,0.384919,0.417492,0.434016,0.392976,0.348957,0.299537,0.267729,0.25705,0.259102,0.265748,0.276009,0.320303,0.399807,0.452321,0.457475,0.430624,0.414512,0.40345,0.396737,0.395682,0.392087,0.388708,0.383682,0.381363,0.378383,0.400304,0.394998,0.368743,0.337403,0.296409,0.269899,0.255785,0.248209,0.248713,0.253161,0.275032,0.306621,0.346759,0.362468,0.375285,0.37078,0.36825,0.362599,0.36589,0.355438,0.357441,0.370364,0.368203,0.370008,0.381191,0.387205,0.36672,0.326167,0.287136,0.261192,0.244577,0.23328,0.229859,0.229522,0.236906,0.249418,0.275006,0.309703,0.330339,0.339704,0.343008,0.350694,0.349326,0.352437,0.348389,0.350245,0.366224,0.381367,0.396696,0.403233,0.368366,0.326555,0.289493,0.256405,0.24171,0.232925,0.230787,0.231432,0.260324,0.330369,0.375038,0.401689,0.413593,0.415526,0.419969,0.409,0.402907,0.396561,0.3958,0.374807,0.385245,0.390935,0.417057,0.423189,0.389874,0.342802,0.290541,0.257852,0.251225,0.248475,0.25127,0.262164,0.299771,0.379858,0.438203,0.469826,0.440977,0.427792,0.421169,0.409774,0.405819,0.406383,0.410055,0.397646,0.414785,0.419774,0.444202,0.447861,0.412203,0.363549,0.322987,0.294619,0.283736,0.286084,0.291296,0.303876,0.345291,0.427593,0.471831,0.462477,0.426726,0.414062,0.403417,0.396866,0.392155,0.39375,0.387925,0.374384,0.376505,0.384025,0.409255,0.425211,0.399528,0.348121,0.294282,0.264333,0.252377,0.251862,0.253142,0.264724,0.296338,0.371209,0.412088,0.4288,0.413507,0.400189,0.399633,0.397299,0.393948,0.389964,0.38215,0.377345,0.383112,0.394342,0.42839,0.433064,0.395663,0.339618,0.289017,0.259539,0.238771,0.236254,0.234736,0.238486,0.264546,0.329595,0.381086,0.402736,0.413593,0.42514,0.416869,0.422003,0.432922,0.442917,0.442174,0.445211,0.461334,0.464874,0.473799,0.475128,0.449707,0.428677,0.406059,0.380957,0.37673,0.381538,0.394651,0.410396,0.443947,0.485859,0.514184,0.518067,0.504905,0.476108,0.454533,0.422809,0.398358,0.373589,0.365305,0.373683,0.37775,0.394413,0.429194,0.444699,0.426287,0.406363,0.378323,0.36872,0.363437,0.366945,0.374378,0.385166,0.401211,0.427558,0.460018,0.460566,0.446404,0.440677,0.423487,0.393034,0.37259,0.362929,0.363233,0.366111,0.38436,0.403947,0.408269,0.393652,0.373602,0.331482,0.297204,0.273589,0.262749,0.259087,0.256064,0.26127,0.296006,0.367073,0.416596,0.441507,0.430924,0.434781,0.432813,0.428836,0.428969,0.420187,0.41879,0.403923,0.395927,0.40253,0.419019,0.43565,0.404873,0.362039,0.316819,0.289493,0.274281,0.27224,0.269938,0.279654,0.31439,0.39344,0.430665,0.442695,0.415344,0.411417,0.405298,0.399908,0.398611,0.397625,0.391364,0.378916,0.382147,0.386195,0.435416,0.437498,0.402592,0.351275,0.307163,0.274987,0.259951,0.258665,0.260729,0.266012,0.306132,0.375437,0.416384,0.432813,0.413337,0.412503,0.408361,0.402067,0.396499,0.403295,0.401216,0.388084,0.391924,0.39068,0.414798,0.433362,0.401904,0.344774,0.295776,0.258418,0.247032,0.241179,0.242645,0.251311,0.288843,0.360153,0.401567,0.420425,0.400017,0.403351,0.403437,0.40774,0.411161,0.416298,0.423738,0.418294,0.420966,0.415604,0.433456,0.445383,0.409099,0.353043,0.294814,0.2591,0.237167,0.231758,0.22764,0.23006,0.255487,0.317042,0.356283,0.37959,0.386133,0.400159,0.404073,0.417435,0.429098,0.436035,0.445531,0.447257,0.445392,0.426861,0.432114,0.428639,0.394983,0.347546,0.303274,0.269104,0.250316,0.241382,0.23726,0.232781,0.237118,0.253877,0.276267,0.31612,0.344862,0.358508,0.359205,0.364318,0.370311,0.382949,0.395785,0.403203,0.399891,0.396872,0.408293,0.421864,0.393135,0.360316,0.314795,0.280546,0.256126,0.242204,0.233398,0.226947,0.231947,0.244118,0.264022,0.300244,0.321135,0.328244,0.336719,0.347647,0.361761,0.372988,0.37828,0.381281,0.376316,0.376082,0.384064,0.394231,0.367815,0.33363,0.286547,0.25731,0.239665,0.229672,0.223793,0.224368,0.243471,0.285029,0.316974,0.333491,0.360303,0.387572,0.410042,0.429344,0.449866,0.470649,0.483136,0.486416,0.504082,0.495982,0.505148,0.499172,0.470081,0.406674,0.353637,0.308857,0.282368,0.267249,0.25913,0.252572,0.270092,0.308321,0.337986,0.361308,0.400879,0.429689,0.462708,0.495294,0.525013,0.549502,0.573276,0.592899,0.602654,0.593157,0.590438,0.582366,0.537382,0.453153,0.393446,0.338083,0.304423,0.288942,0.273561,0.264749,0.279671,0.322717,0.350687,0.383414,0.416266,0.458067,0.487162,0.531475,0.561799,0.585196,0.598302,0.607208,0.595118,0.570857,0.565058,0.57024,0.532991,0.460453,0.385235,0.332682,0.304957,0.285308,0.271717,0.266145,0.282949,0.319819,0.361626,0.383159,0.412287,0.44489,0.47536,0.494636,0.510115,0.524398,0.531512,0.526075,0.506455,0.496137,0.503696,0.485213,0.4386,0.367339,0.316011,0.275282,0.253787,0.243121,0.2372,0.236805,0.253129,0.289936,0.316959,0.334816,0.345027,0.349909,0.352306,0.361,0.35985,0.351952,0.357552,0.366756,0.367843,0.358894,0.362719,0.372573,0.356101,0.318845,0.286268,0.261315,0.246974,0.241972,0.23819,0.239509,0.254351,0.277392,0.303653,0.333752,0.355777,0.357132,0.355987,0.346955,0.343608,0.341425,0.340945,0.346787,0.352585,0.364025,0.369359,0.378951,0.356439,0.318386,0.285361,0.259419,0.243155,0.237566,0.237703,0.236018,0.245188,0.265129,0.287614,0.315985,0.334642,0.338795,0.340868,0.349613,0.355745,0.359994,0.368677,0.377291,0.389928,0.399766,0.395223,0.400086,0.369076,0.32249,0.282529,0.254525,0.238087,0.22931,0.223322,0.226098,0.252314,0.312979,0.350329,0.377272,0.387106,0.402144,0.411369,0.419643,0.428,0.438396,0.436801,0.433992,0.442394,0.441132,0.447027,0.452342,0.412244,0.355552,0.293118,0.255777,0.239065,0.230212,0.227522,0.232262,0.26327,0.319115,0.362725,0.387048,0.379309,0.397031,0.40128,0.405679,0.417415,0.418882,0.400892,0.385749,0.386502,0.397884,0.417182,0.417265,0.386013,0.338784,0.28957,0.25841,0.248288,0.23968,0.238687,0.243561,0.272019,0.330933,0.376644,0.398864,0.393311,0.40759,0.404149,0.40322,0.397196,0.395054,0.396021,0.386564,0.384244,0.389064,0.414129,0.426216,0.40756,0.364303,0.311586,0.281309,0.26949,0.269762,0.272015,0.28108,0.313222,0.387104,0.426019,0.435208,0.411174,0.40503,0.402987,0.397037,0.405175,0.406726,0.412287,0.409616,0.41215,0.402914,0.416941,0.43575,0.399708,0.349508,0.290809,0.255104,0.23888,0.233789,0.230298,0.230523,0.260927,0.318179,0.355359,0.38064,0.387878,0.421071,0.442965,0.456952,0.477572,0.481547,0.485886,0.484323,0.486585,0.471391,0.473115,0.47545,0.44218,0.39672,0.343962,0.294833,0.273029,0.25764,0.250434,0.246466,0.254192,0.272978,0.292985,0.321757,0.34111,0.362267,0.367311,0.378486,0.386249,0.385773,0.393047,0.398227,0.399018,0.386701,0.384859,0.387205,0.368913,0.336516,0.292398,0.257123,0.242384,0.23614,0.236314,0.238317,0.247799,0.265789,0.287383,0.32362,0.333801,0.346386,0.344924,0.342572,0.353389,0.34302,0.337633,0.349677,0.352233,0.36205,0.374691,0.389986,0.366649,0.332236,0.293043,0.266368,0.258332,0.256212,0.256379,0.262567,0.295324,0.370639,0.410503,0.435214,0.417741,0.40441,0.406217,0.410392,0.403986,0.397052,0.400742,0.384118,0.38392,0.390121,0.404442,0.421587,0.394769,0.344461,0.29586,0.26628,0.25564,0.255076,0.258242,0.262101,0.29479,0.360581,0.399899,0.418397,0.399267,0.403752,0.399194,0.395626,0.401659,0.405433,0.409191,0.405939,0.404236,0.395605,0.412791,0.426017,0.399608,0.343284,0.288646,0.25832,0.243745,0.237062,0.234683,0.23869,0.267024,0.307026,0.347994,0.382692,0.382598,0.395228,0.404335,0.403192,0.398967,0.404078,0.394368,0.395129,0.392029,0.392708,0.408029,0.426053,0.390292,0.345756,0.301342,0.273241,0.259803,0.254488,0.251819,0.253468,0.278816,0.342877,0.382846,0.406142,0.395035,0.398113,0.404016,0.405673,0.406029,0.409549,0.410853,0.40548,0.406955,0.403312,0.40494,0.420511,0.388864,0.337255,0.288712,0.253972,0.241689,0.23548,0.23357,0.23834,0.266169,0.314075,0.365536,0.386234,0.388579,0.392693,0.394979,0.402427,0.410578,0.414502,0.421294,0.412208,0.406436,0.397243,0.413305,0.418957,0.384255,0.341839,0.291632,0.264966,0.234108,0.222237,0.232584,0.229891,0.235948,0.257895,0.279581,0.30882,0.34298,0.35809,0.358658,0.355299,0.350574,0.351275,0.345563,0.344845,0.349574,0.352488,0.374005,0.36798,0.355342,0.329166,0.288579,0.260249,0.24763,0.239022,0.232556,0.232116,0.23458,0.243269,0.263669,0.306239,0.324012,0.337944,0.349143,0.364147,0.368701,0.376269,0.382439,0.394722,0.413929,0.429318,0.423914,0.423444,0.397211,0.353807,0.308629,0.277242,0.256607,0.24417,0.234824,0.229717,0.252383,0.317503,0.360095,0.390912,0.40781,0.433386,0.442259,0.456249,0.458648,0.443584,0.43333,0.427766,0.438497,0.436932,0.437142,0.441629,0.405692,0.355275,0.298504,0.259226,0.24171,0.235718,0.232468,0.235622,0.260774,0.320642,0.365774,0.389546,0.386403,0.398416,0.405754,0.412499,0.402545,0.38585,0.379673,0.382829,0.390449,0.399438,0.403443,0.419789,0.391868,0.338409,0.293489,0.262172,0.252218,0.248164,0.250906,0.258356,0.294456,0.367466,0.407358,0.424728,0.408164,0.414051,0.402922,0.404635,0.402894,0.399938,0.389317,0.37989,0.384935,0.386225,0.404082,0.42768,0.403417,0.361081,0.31108,0.28156,0.267963,0.269723,0.271488,0.280632,0.319366,0.384675,0.425239,0.435825,0.409423,0.409648,0.404221,0.400116,0.402204,0.404601,0.40057,0.407311,0.405302,0.397588,0.406033,0.427876,0.401117,0.346022,0.292295,0.258543,0.245411,0.242244,0.240171,0.244326,0.272678,0.329353,0.363165,0.388305,0.392869,0.408878,0.421489,0.435512,0.454576,0.470724,0.480471,0.481526,0.488268,0.476948,0.468409,0.470163,0.434901,0.392539,0.34772,0.311697,0.283331,0.263049,0.25445,0.24837,0.252437,0.272238,0.30644,0.355022,0.388909,0.427713,0.464055,0.494872,0.522518,0.543492,0.56536,0.583029,0.571449,0.570302,0.551864,0.539253,0.515121,0.469284,0.407229,0.367086,0.338662,0.31796,0.304337,0.295395,0.297136,0.310705,0.33601,0.389149,0.444009,0.496257,0.522769,0.554214,0.575259,0.580083,0.593388,0.61382,0.621223,0.634155,0.622505,0.619366,0.577306,0.513946,0.446076,0.401831,0.373698,0.353196,0.331874,0.322357,0.347407,0.41287,0.457456,0.483749,0.504264,0.535997,0.54334,0.545323,0.531134,0.54114,0.560245,0.546322,0.551965,0.548462,0.545589,0.549523,0.515842,0.444667,0.37459,0.328487,0.299642,0.283176,0.276297,0.272414,0.307587,0.375574,0.414641,0.448867,0.472262,0.498326,0.524615,0.537476,0.544354,0.575353,0.599498,0.607572,0.603465,0.588644,0.555097,0.550475,0.506919,0.442174,0.363611,0.307675,0.27566,0.260682,0.249969,0.247139,0.26863,0.315737,0.360335,0.404734,0.428956,0.467764,0.491531,0.525112,0.554887,0.587565,0.610874,0.616491,0.619964,0.600898,0.578736,0.576277,0.531698,0.461229,0.379133,0.324441,0.298356,0.27968,0.270767,0.266025,0.290983,0.346367,0.39592,0.441247,0.473908,0.518507,0.559154,0.600096,0.634704,0.65439,0.67209,0.676865,0.677083,0.647919,0.617439,0.611251,0.556544,0.480059,0.389109,0.32711,0.292136,0.269758,0.256283,0.249264,0.266589,0.3132,0.355177,0.393214,0.415994,0.446545,0.469762,0.492614,0.510998,0.535993,0.55407,0.557711,0.562339,0.53229,0.508908,0.508076,0.475055,0.422338,0.367202,0.327211,0.300341,0.284064,0.276333,0.27203,0.279961,0.294338,0.326572,0.385976,0.450078,0.498915,0.538269,0.546586,0.531782,0.518039,0.513899,0.513262,0.502641,0.472967,0.440551,0.432444,0.404172,0.356707,0.30233,0.270465,0.245531,0.23646,0.228534,0.22175,0.223896,0.227196,0.253541,0.291006,0.31412,0.328965,0.338387,0.340501,0.33974,0.33789,0.344393,0.349079,0.357947,0.362481,0.360041,0.367982,0.34885,0.309693,0.277071,0.245831,0.233289,0.228212,0.227839,0.232856,0.25955,0.315226,0.365804,0.390397,0.391017,0.397507,0.404127,0.403267,0.401548,0.400165,0.394036,0.399235,0.401867,0.398154,0.419823,0.431872,0.399117,0.347077,0.290213,0.257679,0.247347,0.242369,0.240375,0.244362,0.273248,0.325052,0.362123,0.395746,0.393823,0.405021,0.407217,0.406689,0.402819,0.404496,0.399003,0.410921,0.418406,0.433261,0.441194,0.432376,0.409536,0.360787,0.302187,0.267256,0.255192,0.247433,0.245477,0.246489,0.273121,0.332582,0.37379,0.387539,0.398452,0.431683,0.450203,0.467852,0.484255,0.506646,0.501409,0.482889,0.481084,0.468465,0.456759,0.460296,0.436992,0.380859,0.323086,0.285286,0.265907,0.250631,0.246918,0.245422,0.270362,0.319323,0.356898,0.393422,0.386978,0.401576,0.410355,0.413653,0.411732,0.40703,0.407911,0.397635,0.396568,0.409403,0.41364,0.426604,0.405937,0.356311,0.30343,0.272926,0.253723,0.249426,0.246732,0.245531,0.285091,0.334906,0.372176,0.386527,0.402545,0.424089,0.449154,0.483667,0.521703,0.551191,0.578826,0.584137,0.5784,0.56434,0.563544,0.561589,0.542414,0.452274,0.383682,0.334421,0.30488,0.288491,0.273825,0.268718,0.27155,0.281116,0.313681,0.361773,0.419911,0.459715,0.493937,0.524081,0.553879,0.563392,0.576275,0.586392,0.59363,0.580179,0.555348,0.540373,0.496705,0.439556,0.376511,0.325073,0.295712,0.276884,0.265116,0.253764,0.25386,0.257826,0.285807,0.321937,0.362149,0.401424,0.437264,0.460431,0.488562,0.491244,0.496227,0.493388,0.504116,0.500982,0.483485,0.46949,0.433608,0.378959,0.321124,0.278271,0.258873,0.246616,0.243796,0.240257,0.26482,0.321873,0.36003,0.389059,0.392451,0.407304,0.40923,0.411348,0.406355,0.39863,0.394301,0.392284,0.402253,0.412958,0.41725,0.408968,0.375917,0.32964,0.282844,0.252919,0.239429,0.235725,0.234929,0.234921,0.2625,0.318348,0.356315,0.389417,0.383796,0.404968,0.41111,0.406666,0.403996,0.399732,0.404247,0.396696,0.402723,0.4098,0.4235,0.424456,0.397307,0.351185,0.297745,0.268184,0.251708,0.243376,0.244864,0.245336,0.274549,0.325159,0.369543,0.39795,0.393167,0.401831,0.410094,0.416579,0.420243,0.421705,0.422421,0.419486,0.415576,0.417994,0.432794,0.438404,0.413983,0.359462,0.303353,0.271882,0.251275,0.244125,0.238857,0.238906,0.26267,0.311644,0.365019,0.391454,0.408531,0.428705,0.437774,0.447229,0.473316,0.486519,0.503417,0.511236,0.515106,0.511054,0.508662,0.500489,0.471438,0.392003,0.327012,0.279907,0.25583,0.242907,0.237525,0.237011,0.258519,0.308424,0.355698,0.396171,0.422374,0.454147,0.482297,0.496454,0.515325,0.537174,0.540291,0.535529,0.533392,0.524115,0.501439,0.488809,0.458678,0.410784,0.358427,0.314077,0.28647,0.270152,0.257655,0.250887,0.255342,0.268904,0.297191,0.323954,0.361776,0.392931,0.405947,0.421847,0.441736,0.451564,0.446013,0.453138,0.453191,0.455721,0.46914,0.446755,0.424795,0.385642,0.335727,0.300292,0.274562,0.260815,0.254055,0.247555,0.249911,0.260035,0.287454,0.329964,0.37677,0.409148,0.440057,0.475613,0.496233,0.500868,0.511757,0.502691,0.500126,0.480722,0.478723,0.464035,0.43864,0.383873,0.33002,0.291782,0.265886,0.252484,0.248256,0.247789,0.276241,0.333894,0.374822,0.419793,0.430916,0.445812,0.453783,0.463677,0.481579,0.494091,0.506749,0.509234,0.529003,0.526896,0.524675,0.521416,0.494383,0.430217,0.362162,0.313076,0.284564,0.268343,0.259981,0.258588,0.287539,0.346605,0.386017,0.428144,0.43667,0.44909,0.468838,0.471524,0.480584,0.494233,0.523148,0.532303,0.52148,0.515486,0.505898,0.501106,0.462582,0.400442,0.337778,0.29497,0.264361,0.252698,0.245252,0.243756,0.266524,0.314242,0.364033,0.407598,0.429391,0.464655,0.494977,0.501683,0.501683,0.501683,0.501683,0.501683,0.501683,0.501683,0.501683,0.501683,0.501683,0.501683,0.501492,0.348395,0.317617,0.297352,0.283399,0.278824,0.31755,0.371951,0.423573,0.46941,0.524653,0.584632,0.63122,0.679993,0.724297,0.751615,0.777926,0.78323,0.782818,0.760485,0.733791,0.718762,0.664848,0.569515,0.468771,0.40477,0.361767,0.326042,0.295877,0.283631,0.295429,0.338398,0.37837,0.425543,0.466299,0.5011,0.53158,0.559632,0.577671,0.585723,0.582448,0.582216,0.555089,0.544613,0.525333,0.508552,0.468437,0.421002,0.36243,0.321133,0.298726,0.278348,0.267663,0.262292,0.264685,0.274909,0.305606,0.360264,0.407521,0.447638,0.474884,0.502026,0.524688,0.544395,0.564796,0.570056,0.569858,0.558448,0.541044,0.515874,0.497504,0.45285,0.388551,0.349971,0.319349,0.302515,0.285556,0.277883,0.274693,0.286382,0.318194,0.380531,0.439189,0.48987,0.546729,0.600988,0.630493,0.649038,0.668349,0.644397,0.643481,0.63312,0.590556,0.559651,0.65729,0.481519,0.428161,0.390408,0.357061,0.333075,0.313565,0.301889,0.309071,0.328306,0.361563,0.444405,0.514058,0.587527,0.632976,0.683858,0.675364,0.69926,0.711131,0.71957,0.707161,0.690393,0.661122,0.640641,0.593463,0.519064,0.443653,0.394514,0.358858,0.336992,0.322269,0.313768,0.33575,0.390901,0.465253,0.493976,0.506533,0.536385,0.583616,0.637317,0.676185,0.706085,0.725522,0.717284,0.680597,0.620822,0.591894,0.572397,0.537019,0.472768,0.395725,0.345126,0.314439,0.297106,0.286092,0.285127,0.307467,0.376144,0.436889,0.485106,0.523727,0.583104,0.630858,0.672665,0.705954,0.739264,0.755187,0.739927,0.734657,0.712205,0.693251,0.69232,0.642493,0.563688,0.472152,0.401479,0.361107,0.33524,0.317345,0.311333,0.349669,0.416086,0.459053,0.485723,0.507718,0.562254,0.627455,0.676436,0.712737,0.750578,0.77372,0.765954,0.738053,0.667779,0.60563,0.582355,0.549521,0.471944,0.383462,0.339427,0.311395,0.293632,0.281972,0.279365,0.322987,0.374165,0.419641,0.445306,0.48594,0.540653,0.602967,0.646378,0.693116,0.723776,0.752494,0.748552,0.747523,0.711356,0.68784,0.674721,0.641155,0.57239,0.502322,0.446783,0.407474,0.379227,0.351133,0.326937,0.323105,0.334269,0.376149,0.432419,0.523613,0.598894,0.645778,0.69148,0.715672,0.733156,0.743582,0.750207,0.752278,0.729951,0.699603,0.684471,0.653877,0.596658,0.519246,0.457413,0.420588,0.394812,0.370403,0.354568,0.343833,0.344712,0.390631,0.458956,0.520247,0.587304,0.632895,0.673331,0.716221,0.741946,0.762432,0.765896,0.728984,0.679195,0.645947,0.617302,0.563321,0.486714,0.418322,0.357621,0.320061,0.294904,0.275044,0.266057,0.28638,0.336456,0.389615,0.437041,0.468641,0.503349,0.516854,0.525556,0.535068,0.550522,0.560045,0.548112,0.553416,0.540143,0.534254,0.529925,0.498527,0.429687,0.355524,0.311322,0.282186,0.26518,0.258071,0.256313,0.279759,0.326403,0.371524,0.414778,0.440656,0.468559,0.484229,0.495659,0.505964,0.525946,0.548704,0.54885,0.547422,0.538021,0.512836,0.495178,0.471333,0.408953,0.335118,0.293641,0.267509,0.254177,0.251064,0.253326,0.291697,0.340951,0.381978,0.399691,0.418865,0.438229,0.466325,0.498787,0.529023,0.553116,0.541702,0.539929,0.551037,0.553869,0.553839,0.559441,0.540926,0.486255,0.417514,0.372598,0.342444,0.327683,0.314686,0.307105,0.353506,0.40092,0.464248,0.520303,0.566194,0.617233,0.670414,0.699423,0.726115,0.740437,0.757696,0.754701,0.746989,0.722363,0.691311,0.670574,0.6302,0.548603,0.472165,0.403968,0.356729,0.328253,0.308754,0.297031,0.311391,0.356817,0.412557,0.479864,0.514832,0.560764,0.605666,0.638769,0.677585,0.705145,0.726741,0.713841,0.704202,0.689632,0.663716,0.624415,0.589709,0.539459,0.458613,0.40247,0.35767,0.329321,0.312094,0.300292,0.302283,0.315752,0.355457,0.408089,0.483837,0.544806,0.594072,0.64808,0.697781,0.742328,0.774112,0.763956,0.666677,0.612527,0.577201,0.553935,0.53036,0.490798,0.43083,0.388749,0.360343,0.340638,0.326341,0.313672,0.313833,0.319167,0.368126,0.449092,0.478991,0.545059,0.607189,0.670604,0.721778,0.750574,0.776189,0.793993,0.795568,0.778393,0.751693,0.716691,0.674785,0.603911,0.524435,0.465099,0.424788,0.394316,0.371314,0.363592,0.381678,0.436942,0.505092,0.570416,0.619388,0.670094,0.717094,0.755149,0.790459,0.819062,0.836299,0.831137,0.825952,0.815263,0.789818,0.762976,0.714534,0.641781,0.553614,0.481397,0.429501,0.403027,0.380762,0.374521,0.413914,0.447784,0.497594,0.53172,0.573192,0.610767,0.65165,0.682716,0.688573,0.726868,0.734477,0.69321,0.689055,0.669232,0.662134,0.637191,0.615053,0.538417,0.459829,0.404397,0.370362,0.348987,0.328174,0.332929,0.37254,0.414815,0.45541,0.485368,0.501106,0.541093,0.568336,0.588652,0.632494,0.641972,0.636201,0.624754,0.651622,0.681798,0.663742,0.659773,0.635677,0.567545,0.473145,0.410244,0.373567,0.350239,0.331846,0.333358,0.365341,0.407853,0.459325,0.518811,0.563347,0.611376,0.643852,0.677259,0.710555,0.744757,0.766567,0.767196,0.775066,0.751079,0.709736,0.68094,0.640934,0.565521,0.474444,0.405602,0.362419,0.33331,0.305673,0.298088,0.330787,0.362352,0.415321,0.462865,0.504682,0.543953,0.578395,0.61746,0.642729,0.674588,0.697732,0.700045,0.701747,0.680533,0.64751,0.600099,0.57009,0.512435,0.443775,0.388178,0.347971,0.324649,0.309609,0.301132,0.297946,0.313001,0.356662,0.409931,0.491062,0.563478,0.621137,0.661801,0.693562,0.725204,0.745786,0.764586,0.763992,0.737414,0.711654,0.671299,0.643962,0.591377,0.527858,0.4726,0.43867,0.408953,0.389192,0.368308,0.355425,0.350404,0.394147,0.46333,0.527393,0.595508,0.658071,0.705392,0.752559,0.77093,0.784489,0.794149,0.793234,0.770407,0.731842,0.675212,0.633463,0.566745,0.49344,0.435836,0.395894,0.366825,0.348809,0.344588,0.363296,0.411507,0.466919,0.517735,0.573966,0.637343,0.683061,0.724848,0.761887,0.782323,0.810207,0.822415,0.81191,0.799906,0.756842,0.721058,0.673143,0.608158,0.516448,0.444931,0.408556,0.381723,0.358412,0.346819,0.355796,0.394694,0.450098,0.511689,0.579472,0.655886,0.712832,0.771185,0.80766,0.840572,0.866902,0.882992,0.87241,0.851187,0.82202,0.801522,0.767701,0.699213,0.613462,0.540045,0.496737,0.461692,0.430774,0.421403,0.425717,0.458317,0.509052,0.565575,0.62914,0.690014,0.740853,0.793624,0.826578,0.854767,0.878916,0.881403,0.846341,0.821457,0.798111,0.775342,0.731231,0.647,0.557143,0.49676,0.45999,0.433272,0.402024,0.389992,0.406728,0.442174,0.494098,0.552979,0.632406,0.708473,0.777416,0.82526,0.867373,0.895502,0.912814,0.918997,0.900624,0.87406,0.796602,0.741224,0.687915,0.622479,0.531797,0.46583,0.427535,0.400174,0.378648,0.361913,0.372281,0.395929,0.437275,0.471824,0.519934,0.5745,0.624576,0.669712,0.699344,0.727535,0.746153,0.757732,0.767832,0.758457,0.713048,0.6751,0.632682,0.566767,0.492863,0.432275,0.396634,0.371136,0.352619,0.33965,0.345456,0.359531,0.397365,0.454527,0.535285,0.591904,0.657108,0.714776,0.746729,0.768355,0.782718,0.793229,0.801479,0.785003,0.751596,0.661992,0.662738,0.597588,0.514579,0.456909,0.415276,0.385153,0.370216,0.348129,0.339684,0.338615,0.379956,0.456926,0.52878,0.602483,0.680674,0.747418,0.800317,0.827003,0.84507,0.861085,0.874526,0.862307,0.829561,0.793581,0.75383,0.699867,0.630637,0.577388,0.532453,0.493787,0.470716,0.457042,0.470298,0.506061,0.538735,0.588779,0.659385,0.728585,0.783554,0.845432,0.881517,0.902382,0.928682,0.936248,0.858935,0.827683,0.800197,0.7706,0.706325,0.615222,0.528684,0.475557,0.436239,0.41343,0.390648,0.38222,0.394306,0.429724,0.487848,0.521266,0.566389,0.588399,0.606037,0.644948,0.70459,0.737903,0.747017,0.769419,0.770266,0.763939,0.729878,0.704884,0.669976,0.596673,0.52052,0.455312,0.407969,0.375726,0.354773,0.340849,0.356347,0.383957,0.418993,0.442332,0.463913,0.499417,0.520773,0.548798,0.56827,0.589636,0.605782,0.598694,0.591435,0.571509,0.562736,0.54278,0.526988,0.462076,0.391883,0.339564,0.305038,0.290389,0.28093,0.278393,0.290031,0.322063,0.352076,0.378754,0.404631,0.436323,0.470521,0.49547,0.517797,0.537403,0.562299,0.582038,0.583558,0.57096,0.54367,0.512748,0.482242,0.424956,0.358967,0.308346,0.277877,0.261473,0.251875,0.251236,0.265622,0.285335,0.320578,0.361407,0.394338,0.429132,0.458626,0.476389,0.489145,0.510362,0.530382,0.542223,0.54995,0.546245,0.512726,0.488316,0.464108,0.416043,0.355983,0.312135,0.285936,0.266503,0.254364,0.251603,0.253609,0.262239,0.288744,0.33509,0.386032,0.428086,0.459216,0.488017,0.516543,0.548558,0.58547,0.607703,0.616598,0.604316,0.575932,0.535647,0.499591,0.441003,0.382962,0.335253,0.306946,0.284928,0.268529,0.25591,0.253691,0.254392,0.286397,0.341586,0.394546,0.451009,0.506175,0.557893,0.612844,0.656692,0.688022,0.712885,0.723189,0.698167,0.639905,0.584752,0.55034,0.502463,0.458397,0.414386,0.367391,0.338846,0.31469,0.302148,0.305675,0.317885,0.347994,0.404813,0.479017,0.557715,0.638484,0.70656,0.752855,0.78657,0.826761,0.851868,0.858382,0.84361,0.809899,0.77114,0.724692,0.639318,0.544242,0.474837,0.431447,0.394542,0.365452,0.346629,0.357657,0.392623,0.445788,0.505952,0.562575,0.642144,0.723212,0.789585,0.833325,0.873919,0.901445,0.905463,0.898268,0.883659,0.848676,0.822507,0.776395,0.703398,0.61326,0.540334,0.488588,0.454244,0.42348,0.404477,0.405045,0.440551,0.490618,0.538274,0.607836,0.696493,0.776226,0.827811,0.861107,0.889602,0.904571,0.91489,0.904185,0.888223,0.858212,0.839093,0.78871,0.710458,0.620987,0.552777,0.50792,0.471878,0.439339,0.426735,0.432451,0.463452,0.500437,0.550263,0.617411,0.698559,0.754463,0.791113,0.812021,0.839717,0.788453,0.755363,0.779418,0.774168,0.743351,0.714,0.666147,0.603317,0.530901,0.469762,0.423305,0.396602,0.370673,0.360412,0.375765,0.39518,0.438898,0.49342,0.542971,0.601306,0.648845,0.68961,0.721585,0.747799,0.766514,0.7737,0.772214,0.749068,0.715415,0.691049,0.647156,0.598452,0.536728,0.482546,0.435842,0.40342,0.384214,0.37382,0.374249,0.379883,0.400815,0.423491,0.467991,0.499642,0.508694,0.521178,0.526113,0.533433,0.556429,0.577094,0.60098,0.610816,0.597695,0.567862,0.537967,0.481768,0.419482,0.375115,0.336876,0.313548,0.298085,0.288356,0.285837,0.285434,0.325446,0.388899,0.448575,0.511646,0.574708,0.620736,0.673404,0.695954,0.717025,0.74471,0.742995,0.729063,0.683005,0.624248,0.583704,0.531865,0.460914,0.412002,0.377418,0.353987,0.336524,0.328628,0.352814,0.39598,0.445492,0.496709,0.541603,0.586485,0.605864,0.606738,0.64445,0.647476,0.644826,0.641695,0.628418,0.637339,0.638456,0.630601,0.607077,0.542088,0.46154,0.406702,0.373726,0.357833,0.342107,0.342604,0.368102,0.409665,0.448376,0.478998,0.512278,0.558167,0.601902,0.653708,0.693122,0.735924,0.766477,0.791034,0.786686,0.764899,0.741252,0.726566,0.690474,0.633623,0.563201,0.491714,0.44987,0.419992,0.391396,0.377491,0.386167,0.42091,0.463416,0.517915,0.559829,0.618453,0.645923,0.674873,0.706239,0.7364,0.755159,0.788866,0.780608,0.762151,0.733253,0.713961,0.673385,0.603775,0.513856,0.451759,0.408885,0.381221,0.358,0.343702,0.358935,0.392608,0.444828,0.50274,0.559096,0.625052,0.682908,0.735038,0.725187,0.749641,0.77915,0.804678,0.803527,0.798446,0.784647,0.758395,0.72219,0.660243,0.595369,0.528452,0.482162,0.45016,0.433383,0.418172,0.421789,0.442429,0.488155,0.546056,0.609963,0.685944,0.751092,0.801181,0.834942,0.850428,0.849493,0.774316,0.691229,0.64787,0.619786,0.617216,0.591744,0.541144,0.484319,0.439333,0.400997,0.380295,0.367723,0.360283,0.364205,0.374213,0.402701,0.458373,0.546303,0.622516,0.680655,0.735892,0.774772,0.762391,0.739266,0.699638,0.65293,0.635692,0.606981,0.582053,0.559261,0.505793,0.441683,0.394634,0.360436,0.337628,0.322769,0.316011,0.314369,0.32142,0.360577,0.428469,0.496109,0.575366,0.652419,0.710276,0.755657,0.792563,0.801033,0.809989,0.836899,0.811952,0.771503,0.704618,0.649834,0.585372,0.513805,0.457383,0.41322,0.380587,0.363011,0.357179,0.38123,0.425882,0.472069,0.513404,0.552392,0.602326,0.632835,0.656171,0.672489,0.734159,0.752109,0.78522,0.797016,0.78934,0.751502,0.724317,0.694439,0.625354,0.550803,0.488313,0.438227,0.404983,0.381901,0.364052,0.378398,0.414885,0.457128,0.523446,0.587406,0.670549,0.745214,0.798113,0.836719,0.842242,0.843207,0.795093,0.808657,0.779067,0.708143,0.670006,0.63783,0.565094,0.489402,0.434213,0.399522,0.379615,0.36264,0.349298,0.368688,0.405212,0.444459,0.488146,0.534483,0.567965,0.608456,0.678745,0.729368,0.774798,0.806095,0.79384,0.789006,0.780014,0.755234,0.742514,0.701501,0.619844,0.534653,0.466608,0.420404,0.391371,0.366439,0.356907,0.370002,0.404459,0.449189,0.51072,0.574532,0.647756,0.710177,0.747223,0.7776,0.806771,0.820265,0.846404,0.846022,0.826831,0.786225,0.756122,0.71248,0.632275,0.559295,0.498934,0.455537,0.41889,0.396983,0.381361,0.38725,0.402918,0.451669,0.501113,0.562322,0.639918,0.71665,0.76434,0.798456,0.837435,0.869586,0.894126,0.907163,0.896471,0.855095,0.82871,0.788478,0.719478,0.650914,0.594085,0.54939,0.520402,0.492569,0.463006,0.449973,0.449281,0.484669,0.553599,0.629749,0.710237,0.76526,0.822782,0.864994,0.886232,0.913614,0.922584,0.918997,0.909052,0.872564,0.839982,0.804513,0.735101,0.664871,0.604026,0.558828,0.530963,0.501685,0.481697,0.476459,0.467378,0.498611,0.566113,0.624162,0.6978,0.765043,0.819244,0.863474,0.891454,0.90635,0.909594,0.91028,0.899059,0.840917,0.781984,0.733814,0.668117,0.596413,0.539832,0.491714,0.456321,0.427007,0.406816,0.417109,0.463915,0.48951,0.513312,0.537991,0.596201,0.628967,0.655245,0.678839,0.716901,0.750001,0.765084,0.76729,0.754113,0.726696,0.690655,0.641052,0.571719,0.498441,0.433375,0.392674,0.365956,0.347137,0.341367,0.348942,0.398844,0.433986,0.455867,0.494025,0.528081,0.537227,0.535257,0.538951,0.58016,0.599145,0.589746,0.562899,0.558967,0.558249,0.560545,0.541322,0.484645,0.427895,0.378286,0.356004,0.340997,0.33143,0.326482,0.346161,0.384392,0.425798,0.4782,0.527588,0.590138,0.642544,0.696803,0.715492,0.757209,0.788942,0.810602,0.797635,0.772607,0.754128,0.738297,0.708809,0.636323,0.567946,0.501621,0.463281,0.435401,0.415685,0.404624,0.418822,0.447203,0.494192,0.549131,0.613852,0.681373,0.743998,0.797399,0.828054,0.852261,0.872079,0.883063,0.734871,0.679392,0.663028,0.651384,0.617962,0.565169,0.490815,0.435838,0.403662,0.381028,0.358525,0.334698,0.336676,0.350889,0.377529,0.420873,0.456491,0.499046,0.541537,0.568754,0.603085,0.625987,0.63521,0.644519,0.636741,0.636614,0.592014,0.559835,0.522837,0.466486,0.40611,0.356221,0.323841,0.303741,0.288663,0.278453,0.279853,0.2935,0.317396,0.369522,0.421341,0.46631,0.512276,0.545269,0.570677,0.595704,0.601679,0.602461,0.600943,0.584148,0.562845,0.553796,0.523526,0.473675,0.419257,0.364113,0.322357,0.297477,0.284137,0.274144,0.274734,0.276869,0.29979,0.343048,0.373329,0.388273,0.411682,0.442339,0.472791,0.47513,0.471829,0.473591,0.477701,0.485657,0.472943,0.465403,0.439612,0.409633,0.362162,0.326325,0.300487,0.28648,0.276018,0.272339,0.289623,0.342834,0.370236,0.402924,0.448455,0.469164,0.493358,0.522569,0.536276,0.564603,0.57978,0.617662,0.61466,0.607167,0.58645,0.574331,0.540568,0.488285,0.430283,0.378546,0.352034,0.330517,0.315389,0.305787,0.324685,0.361735,0.403799,0.443962,0.492732,0.539016,0.586922,0.626641,0.647128,0.680368,0.713209,0.731477,0.718828,0.697206,0.683717,0.678871,0.637607,0.568353,0.511554,0.445237,0.411543,0.389722,0.37834,0.378393,0.389454,0.43101,0.45549,0.482653,0.510422,0.543301,0.593978,0.650702,0.693933,0.747926,0.7823,0.819538,0.817803,0.792333,0.762207,0.749298,0.703769,0.588487,0.502249,0.438456,0.398143,0.36989,0.350018,0.341972,0.355646,0.396149,0.438355,0.482546,0.547793,0.622569,0.695337,0.762803,0.811318,0.85832,0.879099,0.874596,0.72446,0.58641,0.652696,0.718108,0.675439,0.64114,0.547778,0.491769,0.452825,0.431257,0.411815,0.404329,0.419636,0.457245,0.528364,0.590202,0.643983,0.709275,0.767725,0.839875,0.896591,0.941322,0.954377,0.702714,0.682908,0.663945,0.631422,0.62156,0.630236,0.567744,0.490292,0.43691,0.393714,0.359445,0.334346,0.31701,0.315424,0.31633,0.337654,0.38529,0.440825,0.494194,0.529213,0.569672,0.599548,0.627537,0.643728,0.651461,0.661788,0.639251,0.606974,0.585546,0.545979,0.485181,0.419555,0.381515,0.346118,0.321223,0.304577,0.287576,0.284004,0.285179,0.307575,0.365343,0.427445,0.492213,0.55222,0.602914,0.642699,0.66098,0.690125,0.705212,0.705516,0.694014,0.661366,0.633619,0.583612,0.520198,0.454064,0.410317,0.374324,0.346789,0.331737,0.320715,0.33959,0.380709,0.428519,0.471636,0.537315,0.600858,0.657998,0.701621,0.73557,0.779982,0.796943,0.812105,0.799085,0.780014,0.749015,0.720863,0.674493,0.594351,0.516375,0.452051,0.417713,0.390018,0.371981,0.363667,0.386229,0.426703,0.456347,0.511288,0.571623,0.65124,0.714285,0.768497,0.805724,0.842171,0.855342,0.855903,0.845224,0.839078,0.808831,0.793907,0.739067,0.663739,0.589559,0.526094,0.490112,0.459278,0.433353,0.416225,0.427773,0.460142,0.478833,0.525502,0.600708,0.678453,0.734618,0.76243,0.813635,0.822541,0.774078,0.700626,0.707279,0.695427,0.673602,0.675951,0.644916,0.588193,0.530448,0.478344,0.438121,0.413571,0.403173,0.397374,0.415653,0.459409,0.479292,0.51198,0.565255,0.627779,0.708003,0.75892,0.796827,0.800111,0.804425,0.801284,0.766104,0.70208,0.645464,0.622831,0.589029,0.533484,0.459284,0.411507,0.378121,0.360581,0.34883,0.340156,0.353912,0.39023,0.419461,0.450513,0.481281,0.522908,0.580842,0.623502,0.627329,0.622595,0.629246,0.614103,0.600442,0.590374,0.568656,0.55567,0.520269,0.466128,0.425558,0.379993,0.342804,0.321602,0.306605,0.298422,0.298894,0.307206,0.338194,0.386051,0.44293,0.499057,0.539764,0.570416,0.606796,0.636732,0.65877,0.666387,0.646637,0.62297,0.613713,0.6014,0.558118,0.502511,0.437195,0.394855,0.363643,0.340184,0.32625,0.312398,0.30625,0.312602,0.330793,0.372688,0.404067,0.442083,0.473046,0.518329,0.537579,0.537946,0.536132,0.544375,0.564962,0.570995,0.567721,0.563034,0.539678,0.483425,0.429621,0.383196,0.355481,0.3342,0.322314,0.314577,0.332307,0.380617,0.413067,0.466362,0.530472,0.595779,0.664816,0.708702,0.763817,0.786686,0.805338,0.781093,0.764398,0.74876,0.716914,0.691152,0.638902,0.566295,0.494677,0.432997,0.395558,0.376863,0.359289,0.355914,0.374869,0.41185,0.447122,0.481554,0.530429,0.598103,0.656441,0.721626,0.765699,0.800214,0.791516,0.759524,0.732288,0.711888,0.705017,0.691094,0.632185,0.570823,0.505452,0.452713,0.418408,0.393051,0.374524,0.364408,0.379793,0.425204,0.450944,0.474875,0.480739,0.510531,0.546172,0.560903,0.573863,0.599959,0.610107,0.613588,0.598748,0.581884,0.561527,0.548065,0.524883,0.470493,0.407517,0.362773,0.334764,0.317265,0.307137,0.30411,0.320955,0.362597,0.390331,0.417981,0.450125,0.481624,0.504056,0.509005,0.517218,0.516811,0.540679,0.558047,0.584862,0.584911,0.571419,0.5614,0.526246,0.470051,0.404324,0.35386,0.32383,0.305902,0.292346,0.289143,0.304241,0.331533,0.358909,0.409017,0.466741,0.529773,0.588674,0.623781,0.661765,0.688789,0.713391,0.729282,0.719731,0.686024,0.653922,0.618843,0.564606,0.503077,0.435982,0.384847,0.345434,0.325712,0.308327,0.299033,0.298733,0.313147,0.332742,0.376003,0.444142,0.518845,0.570791,0.61504,0.664179,0.685423,0.698651,0.699895,0.692998,0.671342,0.636027,0.61254,0.578563,0.526789,0.470422,0.423541,0.386086,0.360877,0.342101,0.330937,0.326608,0.334972,0.354246,0.407247,0.447248,0.476839,0.54367,0.601201,0.599428,0.635695,0.679131,0.706582,0.709712,0.618301,0.591203,0.559023,0.522486,0.471588,0.413372,0.366692,0.330367,0.309922,0.293843,0.293094,0.30939,0.354966,0.38657,0.421954,0.463043,0.50396,0.538683,0.583897,0.615951,0.649032,0.67426,0.676935,0.639268,0.617928,0.605454,0.595298,0.539198,0.48255,0.412821,0.366169,0.330335,0.314334,0.307126,0.30298,0.326874,0.373233,0.390912,0.418852,0.432378,0.459235,0.47957,0.486515,0.50641,0.501786,0.497558,0.479557,0.477308,0.470973,0.48284,0.480565,0.452171,0.408814,0.356266,0.312396,0.290232,0.277855,0.273016,0.267974,0.28609,0.319814,0.347373,0.381294,0.416463,0.455893,0.482926,0.509628,0.53464,0.529093,0.541605,0.546041,0.561302,0.557353,0.53873,0.543083,0.506873,0.447709,0.386345,0.339176,0.312928,0.298724,0.283507,0.27968,0.302689,0.334408,0.365744,0.403396,0.455464,0.509105,0.547246,0.579776,0.615366,0.635898,0.653221,0.65949,0.655972,0.636003,0.608953,0.563722,0.511251,0.452259,0.38821,0.344313,0.316213,0.303261,0.285543,0.278878,0.292344,0.329762,0.350436,0.382079,0.41347,0.468458,0.492996,0.527457,0.551489,0.553569,0.581015,0.612594,0.621849,0.599921,0.579212,0.569526,0.521322,0.467854,0.409178,0.367232,0.335519,0.309736,0.290526,0.277821,0.281296,0.294409,0.31927,0.368578,0.426092,0.480104,0.526257,0.558954,0.592942,0.630545,0.640829,0.661692,0.663444,0.644107,0.609511,0.596265,0.553922,0.49812,0.423373,0.367099,0.33191,0.307446,0.292449,0.282529,0.275851,0.278205,0.297998,0.362003,0.415023,0.472774,0.537871,0.594417,0.645216,0.680846,0.703593,0.727003,0.724314,0.712058,0.664859,0.631001,0.574463,0.501222,0.43455,0.383082,0.339116,0.319499,0.303529,0.291964,0.313779,0.348738,0.381478,0.445426,0.510703,0.573282,0.638925,0.705585,0.756073,0.799644,0.820003,0.820464,0.817055,0.787175,0.745855,0.721815,0.649748,0.571824,0.490275,0.426615,0.385867,0.357228,0.333553,0.325993,0.345409,0.385082,0.416253,0.478884,0.547688,0.607609,0.667311,0.715065,0.759134,0.797232,0.820524,0.805471,0.803304,0.773454,0.736764,0.715387,0.65246,0.574867,0.488157,0.425198,0.38311,0.357173,0.340979,0.328594,0.343278,0.382124,0.413974,0.472122,0.5456,0.613985,0.68743,0.741393,0.787732,0.815769,0.840047,0.823058,0.810019,0.779326,0.746648,0.723562,0.674303,0.591379,0.501085,0.429128,0.390419,0.36268,0.340156,0.331696,0.360125,0.395065,0.425672,0.459302,0.495755,0.539172,0.605606,0.673861,0.719686,0.725944,0.742208,0.731636,0.704582,0.674316,0.649148,0.631394,0.58281,0.519197,0.443057,0.383472,0.350533,0.33152,0.319718,0.314099,0.33637,0.375593,0.411181,0.442476,0.483676,0.519259,0.549656,0.562264,0.580694,0.599055,0.629117,0.631006,0.661246,0.661458,0.642604,0.623547,0.571739,0.522029,0.458976,0.404629,0.363808,0.338717,0.309965,0.28749,0.289493,0.297052,0.313445,0.354328,0.397946,0.443038,0.471809,0.497991,0.511742,0.530997,0.54072,0.544656,0.545016,0.525768,0.500714,0.477733,0.443183,0.395624,0.339436,0.298585,0.26991,0.254042,0.242309,0.235506,0.23285,0.238906,0.258935,0.300819,0.331006,0.361087,0.377008,0.407371,0.438835,0.458107,0.472054,0.492897,0.490039,0.466304,0.452359,0.428276,0.399033,0.364323,0.316045,0.282692,0.256225,0.241262,0.231503,0.226851,0.232116,0.243029,0.2544,0.297534,0.349139,0.386274,0.421744,0.455294,0.48841,0.518127,0.551079,0.574048,0.59592,0.581736,0.560358,0.556109,0.501745,0.43321,0.375831,0.330414,0.300401,0.281045,0.267125,0.260704,0.304715,0.356538,0.395238,0.430716,0.472405,0.520833,0.578893,0.633426,0.678316,0.718084,0.739905,0.728304,0.728532,0.707851,0.687977,0.664402,0.593877,0.515261,0.445053,0.390481,0.352323,0.331025,0.322569,0.318039,0.345872,0.396795,0.426699,0.472266,0.500791,0.521489,0.525168,0.567123,0.595731,0.629657,0.670531,0.677429,0.680842,0.672049,0.652915,0.6392,0.581271,0.507703,0.416626,0.345385,0.305158,0.281219,0.263281,0.250376,0.275613,0.322151,0.351215,0.390974,0.420438,0.450985,0.474097,0.495062,0.523793,0.556071,0.575512,0.569387,0.568505,0.55776,0.532153,0.522842,0.479555,0.404447,0.340045,0.296893,0.267108,0.252276,0.24239,0.23622,0.254962,0.302489,0.326388,0.361081,0.393157,0.420252,0.433094,0.450106,0.466623,0.481631,0.494964,0.492149,0.487467,0.470877,0.462363,0.456424,0.421364,0.370739,0.315005,0.271818,0.250481,0.236904,0.228746,0.22344,0.225586,0.233675,0.26074,0.293465,0.336837,0.368036,0.387752,0.411888,0.429719,0.445951,0.459638,0.457453,0.452542,0.44683,0.449774,0.439794,0.406586,0.368896,0.32759,0.291555,0.267309,0.252023,0.243359,0.238182,0.238988,0.246271,0.269101,0.308426,0.334824,0.361032,0.383063,0.40777,0.429091,0.440894,0.451675,0.475827,0.496632,0.49219,0.480492,0.452964,0.412055,0.366722,0.321401,0.28296,0.256058,0.242973,0.236443,0.233285,0.258538,0.310535,0.349905,0.382248,0.411496,0.446078,0.478003,0.502215,0.525198,0.547471,0.569127,0.572135,0.571473,0.565946,0.557526,0.537633,0.481924,0.418408,0.356821,0.312199,0.286375,0.266154,0.258819,0.256787,0.279077,0.328056,0.363165,0.41212,0.448794,0.496733,0.539103,0.581238,0.613745,0.646429,0.670096,0.666383,0.658958,0.639151,0.610994,0.586064,0.518751,0.438696,0.370647,0.318091,0.283372,0.264479,0.252713,0.249268,0.282915,0.330888,0.36384,0.391456,0.432093,0.4689,0.496182,0.530371,0.56149,0.602238,0.635785,0.64951,0.653826,0.633722,0.619904,0.589827,0.526973,0.457724,0.384246,0.333613,0.304335,0.290316,0.279562,0.276895,0.294979,0.34594,0.383787,0.428144,0.468866,0.515091,0.570233,0.627061,0.660541,0.686227,0.716459,0.704903,0.686731,0.66538,0.667573,0.650698,0.583044,0.505178,0.429462,0.380331,0.355031,0.335776,0.322848,0.309258,0.342457,0.389452,0.427813,0.467318,0.502849,0.546161,0.587788,0.625629,0.654156,0.654956,0.654002,0.643046,0.632579,0.606112,0.58332,0.555153,0.489368,0.432989,0.376374,0.322284,0.290361,0.271325,0.256842,0.248395,0.248745,0.25925,0.278979,0.312857,0.362209,0.398583,0.418562,0.445647,0.467213,0.492217,0.518384,0.52446,0.524184,0.503771,0.491015,0.469099,0.421791,0.376944,0.328853,0.286952,0.258189,0.245025,0.23491,0.229539,0.230026,0.23741,0.254986,0.302448,0.338887,0.376914,0.409498,0.451423,0.488343,0.521103,0.545694,0.573226,0.582638,0.557816,0.536128,0.507064,0.464616,0.408141,0.35112,0.306979,0.277122,0.259445,0.246217,0.243483,0.267886,0.324179,0.366943,0.415835,0.450192,0.48252,0.505692,0.531374,0.551609,0.571769,0.5877,0.585867,0.573589,0.557646,0.557213,0.535311,0.464447,0.397327,0.325714,0.281744,0.256911,0.243314,0.235703,0.23435,0.254158,0.300969,0.33134,0.364865,0.394233,0.420771,0.442611,0.464108,0.493259,0.517021,0.533118,0.544144,0.553584,0.554658,0.561834,0.548271,0.481667,0.411995,0.344808,0.306931,0.270514,0.237037,0.239712,0.262749,0.288228,0.341151,0.378621,0.421377,0.464696,0.518912,0.569065,0.623663,0.67975,0.727957,0.751648,0.753123,0.750932,0.734243,0.731094,0.709787,0.651463,0.563023,0.467228,0.403917,0.36407,0.336473,0.314159,0.304509,0.319699,0.375829,0.411451,0.449139,0.494209,0.555299,0.606741,0.679412,0.734432,0.77086,0.7919,0.783078,0.770017,0.741312,0.720756,0.682904,0.614375,0.539635,0.46809,0.40748,0.370263,0.345617,0.325159,0.319546,0.346496,0.405216,0.441138,0.474815,0.519849,0.579825,0.63705,0.69964,0.75014,0.773702,0.786006,0.769361,0.756885,0.728045,0.707311,0.670401,0.607768,0.542797,0.4689,0.412879,0.372487,0.34692,0.327588,0.311498,0.305272,0.316084,0.343228,0.388834,0.453822,0.506805,0.547229,0.60768,0.658082,0.686849,0.706625,0.7014,0.679883,0.657372,0.646485,0.611942,0.550878,0.489149,0.433255,0.379122,0.341447,0.316472,0.298079,0.280211,0.275705,0.284349,0.306376,0.335905,0.366278,0.394822,0.430586,0.458933,0.498118,0.496104,0.495528,0.47805,0.476335,0.490245,0.489128,0.451871,0.413498,0.370722,0.323646,0.290037,0.264644,0.251665,0.246592,0.247686,0.273962,0.334588,0.383382,0.411479,0.435489,0.459186,0.47054,0.478766,0.480865,0.498263,0.491677,0.479069,0.487634,0.493609,0.513078,0.489658,0.446899,0.401106,0.349193,0.310297,0.287025,0.274217,0.26589,0.267834,0.294346,0.348239,0.387951,0.422209,0.452449,0.476258,0.489996,0.513625,0.54087,0.550771,0.544212,0.537545,0.527301,0.525138,0.542491,0.517853,0.457498,0.392582,0.332048,0.289831,0.266432,0.252181,0.24501,0.243541,0.266462,0.316082,0.348948,0.366001,0.384516,0.398692,0.397929,0.402174,0.4047,0.404455,0.399623,0.399277,0.406436,0.426521,0.434642,0.422681,0.386401,0.347343,0.300997,0.271042,0.256707,0.249171,0.242347,0.243325,0.26827,0.321523,0.366848,0.394936,0.430502,0.460933,0.469522,0.209468,0.493714,0.496332,0.481065,0.47888,0.483363,0.498701,0.509114,0.486352,0.450267,0.390312,0.338323,0.293064,0.26494,0.245818,0.238263,0.231291,0.253365,0.298201,0.348301,0.363459,0.376378,0.395082,0.403816,0.414289,0.426724,0.432736,0.441393,0.429434,0.417752,0.404309,0.416163,0.397462,0.354733,0.321744,0.27885,0.247932,0.22997,0.21704,0.21439,0.212105,0.216671,0.230133,0.259145,0.284712,0.315537,0.340574,0.347092,0.354364,0.355998,0.361315,0.36383,0.369558,0.372476,0.372658,0.393885,0.375167,0.336974,0.304995,0.271869,0.244129,0.227522,0.218286,0.213117,0.211224,0.214963,0.226793,0.240343,0.27465,0.29938,0.319004,0.33429,0.343659,0.344004,0.34388,0.338293,0.3406,0.361583,0.386497,0.389833,0.36813,0.334981,0.300849,0.26122,0.239003,0.224167,0.218196,0.216641,0.218228,0.243518,0.297474,0.354529,0.372354,0.380291,0.389919,0.389673,0.382587,0.384137,0.378205,0.373818,0.378196,0.376339,0.385936,0.413985,0.407768,0.37099,0.330208,0.284377,0.256793,0.251062,0.245878,0.2476,0.252497,0.286416,0.349214,0.384739,0.398823,0.385618,0.384313,0.383933,0.382557,0.380181,0.380855,0.376852,0.373419,0.380756,0.393294,0.428311,0.415016,0.371325,0.326525,0.284043,0.256188,0.249396,0.24572,0.24364,0.249694,0.281498,0.338958,0.380036,0.384004,0.390652,0.393382,0.38507,0.383393,0.378983,0.376541,0.378516,0.369773,0.370272,0.387719,0.423824,0.40497,0.370291,0.3286
...